Circuit: * C:\users\teo\Documents\School\Particle Physics\Geiger-Counter\Geiger-Counter\Electric Circuit\Proposed_Circuit_Toharia\Geiger.asc

WARNING: Less than two connections to node N008.  This node is used by D1.
Direct Newton iteration for .op point succeeded.

Date: Fri Apr 10 21:22:13 2026
Total elapsed time: 0.757 seconds.

tnom = 27
temp = 27
method = modified trap
totiter = 150955
traniter = 150926
tranpoints = 57051
accept = 42289
rejected = 14762
matrix size = 29
fillins = 7
solver = Normal
Matrix Compiler1: 1.43 KB object code size  0.6/0.4/[0.3]
Matrix Compiler2: 2.00 KB object code size  0.4/0.6/[0.4]

