Circuit: * C:\users\teo\Documents\School\Particle Physics\Geiger-Counter\Geiger-Counter\Electric Circuit\Proposed_Circuit_Toharia\Geiger(1).asc

Direct Newton iteration for .op point succeeded.

Date: Sat Apr 11 21:54:00 2026
Total elapsed time: 0.357 seconds.

tnom = 27
temp = 27
method = modified trap
totiter = 53884
traniter = 53867
tranpoints = 14384
accept = 10849
rejected = 3535
matrix size = 27
fillins = 1
solver = Normal
Matrix Compiler1: 1.12 KB object code size  0.3/0.2/[0.2]
Matrix Compiler2: off  [0.2]/0.3/0.3

