Circuit: * C:\users\teo\Documents\School\Particle Physics\Geiger-Counter\Geiger-Counter\Electric Circuit\Proposed_Circuit_Toharia\Geiger.asc

Direct Newton iteration for .op point succeeded.
Heightened Def Con from 0.00269906 to 0.00269906
Heightened Def Con from 0.0030581 to 0.0030581
Heightened Def Con from 0.0030581 to 0.0030581
Heightened Def Con from 0.00348896 to 0.00348896
Heightened Def Con from 0.00348899 to 0.00348899
Heightened Def Con from 0.003489 to 0.003489
Heightened Def Con from 0.00370427 to 0.00370427
Heightened Def Con from 0.00370427 to 0.00370427
Heightened Def Con from 0.00370427 to 0.00370427
Heightened Def Con from 0.00370427 +to 0.00370427
Heightened Def Con from 0.00370427 to 0.00370428
Heightened Def Con from 0.0037044 to 0.0037044
Heightened Def Con from 0.0037046 to 0.00370461
Heightened Def Con from 0.00370461 to 0.00370461
Heightened Def Con from 0.00391991 to 0.00391991
Heightened Def Con from 0.00391992 to 0.00391992
Heightened Def Con from 0.00412 to 0.00412
Heightened Def Con from 0.00412001 to 0.00412001
Heightened Def Con from 0.00412001 to 0.00412001
Heightened Def Con from 0.0041355 to 0.0041355
Heightened Def Con from 0.0041355 ++++++++++++++++to 0.0041355
Heightened Def Con from 0.0041355 +++++++++++++to 0.0041355
Heightened Def Con from 0.0041355 ++++++++++to 0.0041355
Heightened Def Con from 0.0041355 ++++++++++++++++++to 0.0041355
Heightened Def Con from 0.0041355 +to 0.0041355
Heightened Def Con from 0.00420722 ++to 0.00420722
Heightened Def Con from 0.00420722 to 0.00420722
Heightened Def Con from 0.00420722 ++to 0.00420722
Heightened Def Con from 0.00420722 +to 0.00420722
Heightened Def Con from 0.00442265 to 0.00442265
Heightened Def Con from 0.00442265 to 0.00442265
Heightened Def Con from 0.00442271 ++to 0.00442271
Heightened Def Con from 0.00442271 to 0.00442271
Heightened Def Con from 0.00442271 to 0.00442271
Heightened Def Con from 0.00442271 to 0.00442271
Heightened Def Con from 0.00442271 to 0.00442272
Heightened Def Con from 0.00456622 to 0.00456622
Heightened Def Con from 0.00456622 +to 0.00456623
Heightened Def Con from 0.00456623 to 0.00456623
Heightened Def Con from 0.00456623 +to 0.00456623
Heightened Def Con from 0.00456636 to 0.00456636
Heightened Def Con from 0.00463806 to 0.00463806
Heightened Def Con from 0.00463806 to 0.00463806
Heightened Def Con from 0.00463806 to 0.00463807
Heightened Def Con from 0.00463808 to 0.00463808
Heightened Def Con from 0.00478165 +to 0.00478165
Heightened Def Con from 0.00485349 ++to 0.00485349
Heightened Def Con from 0.0048536 to 0.0048536
Heightened Def Con from 0.0048536 to 0.0048536
Heightened Def Con from 0.0048536 to 0.0048536
Heightened Def Con from 0.00506892 to 0.00506892
Heightened Def Con from 0.00521263 to 0.00521263
Heightened Def Con from 0.00528431 to 0.00528431
Heightened Def Con from 0.00528436 to 0.00528436
Heightened Def Con from 0.00528436 to 0.00528436
Heightened Def Con from 0.00542792 to 0.00542792
Heightened Def Con from 0.00542792 to 0.00542792
Heightened Def Con from 0.00542792 to 0.00542792
Heightened Def Con from 0.00542794 +to 0.00542794
Heightened Def Con from 0.00542794 to 0.00542794
Heightened Def Con from 0.00549978 to 0.00549978
Heightened Def Con from 0.00571522 to 0.00571522
Heightened Def Con from 0.00593063 to 0.00593063
Heightened Def Con from 0.00614607 to 0.00614607
Heightened Def Con from 0.00614607 to 0.00614607
Heightened Def Con from 0.00628956 to 0.00628956
Heightened Def Con from 0.00628956 to 0.00628956
Heightened Def Con from 0.00628963 to 0.00628963
Heightened Def Con from 0.00636149 to 0.00636149
Heightened Def Con from 0.00636149 to 0.00636149
Heightened Def Con from 0.00650508 to 0.00650509
Heightened Def Con from 0.00650509 to 0.00650509
Heightened Def Con from 0.00650521 to 0.00650521
Heightened Def Con from 0.00650521 to 0.00650521
Heightened Def Con from 0.00650521 to 0.00650521
Heightened Def Con from 0.00650521 to 0.00650521
Heightened Def Con from 0.00672063 to 0.00672063
Heightened Def Con from 0.00672063 to 0.00672063
Heightened Def Con from 0.00679235 to 0.00679236
Heightened Def Con from 0.00679236 to 0.00679236
Heightened Def Con from 0.00679245 to 0.00679245
Heightened Def Con from 0.00693579 to 0.00693579
Heightened Def Con from 0.00693593 ++to 0.00693593
Heightened Def Con from 0.00693593 to 0.00693593
Heightened Def Con from 0.00693606 +to 0.00693606
Heightened Def Con from 0.00693607 ++to 0.00693607
Heightened Def Con from 0.00693607 to 0.00693607
Heightened Def Con from 0.00693607 ++++++++++to 0.00693607
Heightened Def Con from 0.00693607 to 0.00693607
Heightened Def Con from 0.00693607 to 0.00693607
Heightened Def Con from 0.00693607 to 0.00693607
Heightened Def Con from 0.00736678 to 0.00736678
Heightened Def Con from 0.00743862 to 0.00743863
Heightened Def Con from 0.00743873 to 0.00743873
Heightened Def Con from 0.00758206 to 0.00758206
Heightened Def Con from 0.00779764 to 0.00779764
Heightened Def Con from 0.00830044 to 0.00830044
Heightened Def Con from 0.00851578 to 0.00851579
Heightened Def Con from 0.00865935 to 0.00865935
Heightened Def Con from 0.00887481 to 0.00887481
Heightened Def Con from 0.00959291 to 0.00959291
Heightened Def Con from 0.00959295 to 0.00959295
Heightened Def Con from 0.00973657 to 0.00973657
Heightened Def Con from 0.00973657 to 0.00973657
Heightened Def Con from 0.00980837 to 0.00980837
Heightened Def Con from 0.00980838 to 0.00980838
Heightened Def Con from 0.00980838 to 0.00980839
Heightened Def Con from 0.00995192 to 0.00995192
Heightened Def Con from 0.00995209 +to 0.00995209
Heightened Def Con from 0.00995209 to 0.00995209

Date: Wed Apr 01 20:27:32 2026
Total elapsed time: 0.583 seconds.

tnom = 27
temp = 27
method = modified trap
totiter = 65743
traniter = 65714
tranpoints = 13552
accept = 9289
rejected = 4461
matrix size = 28
fillins = 6
solver = Normal
Matrix Compiler1: 1.30 KB object code size  0.6/0.4/[0.3]
Matrix Compiler2: 1.97 KB object code size  0.4/0.6/[0.4]

