Circuit: * C:\users\teo\Documents\Geiger Counter\Electric Circuit\Proposed_Circuit_Toharia\Geiger_simplified_secondary.asc

Direct Newton iteration for .op point succeeded.

Date: Thu Apr 02 19:45:45 2026
Total elapsed time: 0.353 seconds.

tnom = 27
temp = 27
method = modified trap
totiter = 43179
traniter = 43168
tranpoints = 12479
accept = 9729
rejected = 2750
matrix size = 29
fillins = 3
solver = Normal
Matrix Compiler1: 1.29 KB object code size  0.7/0.3/[0.3]
Matrix Compiler2: off  [0.3]/0.4/0.4

