Circuit: * C:\users\teo\Documents\Geiger Counter\Electric Circuit\Proposed_Circuit_Toharia\Geiger.asc

Direct Newton iteration for .op point succeeded.

Date: Thu Apr 02 12:26:47 2026
Total elapsed time: 0.557 seconds.

tnom = 27
temp = 27
method = modified trap
totiter = 67328
traniter = 67299
tranpoints = 19408
accept = 14511
rejected = 4897
matrix size = 29
fillins = 6
solver = Normal
Matrix Compiler1: 1.40 KB object code size  0.9/0.4/[0.4]
Matrix Compiler2: off
